Version 4
SHEET 1 880 680
WIRE 224 0 -32 0
WIRE 432 0 304 0
WIRE -32 176 -32 0
WIRE 192 176 -32 176
WIRE 240 176 192 176
WIRE -32 192 -32 176
WIRE 192 208 192 176
WIRE 240 208 192 208
WIRE 432 208 432 0
WIRE 432 208 304 208
WIRE -32 288 -32 256
WIRE 256 288 256 224
WIRE 256 288 -32 288
WIRE -32 304 -32 288
FLAG -32 304 0
SYMBOL Digital\\or 272 128 R0
SYMATTR InstName A1
SYMATTR SpiceLine VHigh=+5v
SYMATTR SpiceLine2 Trise=7ns Td=11ns
SYMBOL res 320 -16 R90
WINDOW 0 0 56 VBottom 2
WINDOW 3 32 56 VTop 2
SYMATTR InstName R1
SYMATTR Value 100K
SYMBOL cap -48 192 R0
SYMATTR InstName C1
SYMATTR Value 5pf
TEXT -56 328 Left 2 !.tran 10us
